This is a test, hopefully it works.
New Line.
This is a user input into the file.
Confirmation input.
