This is a test, hopefully it works.
New Line.
