This is a test, hopefully it works. 
New Line.

This is a user inputted line.

New input.

Another input.

User input.
